MolPort-027-895-796 PubChem-75371018


 24 26  0  0  0  0  0  0  0  0999 V2000
    6.0217   -1.3169   52.9751 C   0  0  0  0  0
    4.5260   -1.0818   52.9826 C   0  0  0  0  0
    2.9710   -2.5091   54.3645 C   0  0  0  0  0
    2.2993   -3.7983   54.5871 C   0  0  0  0  0
    2.5198   -4.8726   53.7173 C   0  0  0  0  0
    1.8655   -6.0905   53.9384 C   0  0  0  0  0
    2.9180   -7.1883   51.8884 C   0  0  0  0  0
    2.3089   -6.3570   50.8044 C   0  0  0  0  0
    1.0802   -6.7297   50.2420 C   0  0  0  0  0
    0.5041   -5.9569   49.2266 C   0  0  0  0  0
    1.1527   -4.8064   48.7661 C   0  0  0  0  0
    2.3733   -4.4304   49.3303 C   0  0  0  0  0
    2.9620   -5.2093   50.3316 C   0  0  0  0  0
    4.8708   -3.6906   50.2454 C   0  0  0  0  0
    3.1371   -3.2324   48.8454 C   0  0  0  0  0
    1.0041   -6.2167   55.0296 C   0  0  0  0  0
    0.8086   -5.1267   55.8798 C   0  0  0  0  0
    3.8398   -2.3359   53.2422 N   0  0  0  0  0
    2.0605   -7.2103   53.0686 N   0  0  0  0  0
    1.4529   -3.9525   55.6433 N   0  0  0  0  0
    2.7763   -1.5550   55.1658 O   0  0  0  0  0
    4.1940   -4.7974   50.8469 O   0  0  0  0  0
    3.9371   -2.6974   49.8802 O   0  0  0  0  0
   -0.6821   -6.3260   48.6870 F   0  0  0  0  0
  1  2  1  0  0  0
  2 18  1  0  0  0
  3  4  1  0  0  0
  4 20  1  0  0  0
  5  6  1  0  0  0
  6 19  1  0  0  0
  7 19  1  0  0  0
  7  8  1  0  0  0
  9 10  1  0  0  0
 10 24  1  0  0  0
 11 12  1  0  0  0
 13 22  1  0  0  0
 13  8  1  0  0  0
 14 22  1  0  0  0
 14 23  1  0  0  0
 15 23  1  0  0  0
 15 12  1  0  0  0
 16 17  1  0  0  0
 18  3  1  0  0  0
  3 21  2  0  0  0
  4  5  2  0  0  0
  6 16  2  0  0  0
  8  9  2  0  0  0
 10 11  2  0  0  0
 12 13  2  0  0  0
 17 20  2  0  0  0
M  END
> <molecular weight>
313.199

> <rmsd>
0.432659

$$$$
MolPort-016-605-357 PubChem-50961126


 21 23  0  0  0  0  0  0  0  0999 V2000
    1.9975   -6.8757   54.1545 C   0  0  0  0  0
    1.8937   -4.5734   55.0550 C   0  0  0  0  0
    2.7844   -4.0864   54.0909 C   0  0  0  0  0
    3.1268   -2.7301   54.1104 C   0  0  0  0  0
    4.6938   -2.8860   52.0578 C   0  0  0  0  0
    5.5570   -4.0027   52.5697 C   0  0  0  0  0
    5.4711   -5.0540   51.4851 C   0  0  0  0  0
    3.3101   -5.8697   51.0907 C   0  0  0  0  0
    2.3000   -6.0896   50.0147 C   0  0  0  0  0
    2.6921   -6.5744   48.7608 C   0  0  0  0  0
    1.7364   -6.7866   47.7625 C   0  0  0  0  0
    0.3880   -6.5180   48.0171 C   0  0  0  0  0
   -0.0053   -6.0386   49.2705 C   0  0  0  0  0
    0.9500   -5.8262   50.2691 C   0  0  0  0  0
    3.6961   -3.5486   51.1353 C   0  0  0  0  0
    1.7271   -2.4068   55.9912 C   0  0  0  0  0
    1.5132   -5.9180   55.0857 O   0  0  0  0  0
    4.0313   -2.1697   53.1473 N   0  0  0  0  0
    4.2548   -4.8293   50.7063 N   0  0  0  0  0
    2.5899   -1.9214   55.0610 N   0  0  0  0  0
    1.3855   -3.7214   55.9833 N   0  0  0  0  0
  1 17  1  0  0  0
  2 17  1  0  0  0
  2 21  1  0  0  0
  3  4  1  0  0  0
  4 18  1  0  0  0
  5 18  1  0  0  0
  5  6  1  0  0  0
  6  7  1  0  0  0
  7 19  1  0  0  0
  8 19  1  0  0  0
  8  9  1  0  0  0
 10 11  1  0  0  0
 12 13  1  0  0  0
 14  9  1  0  0  0
 15 19  1  0  0  0
 15  5  1  0  0  0
 16 20  1  0  0  0
  2  3  2  0  0  0
  4 20  2  0  0  0
  9 10  2  0  0  0
 11 12  2  0  0  0
 13 14  2  0  0  0
 16 21  2  0  0  0
M  END
> <molecular weight>
264.197

> <rmsd>
0.327623

$$$$
MolPort-030-027-432 PubChem-86797689


 22 24  0  0  0  0  0  0  0  0999 V2000
    0.6303   -7.3487   56.9287 C   0  0  0  0  0
    0.0571   -6.1274   56.2406 C   0  0  0  0  0
    1.5139   -4.4421   55.1902 C   0  0  0  0  0
    2.3679   -4.0926   54.1455 C   0  0  0  0  0
    2.9442   -2.8177   54.1410 C   0  0  0  0  0
    4.2505   -3.1523   51.9565 C   0  0  0  0  0
    5.1037   -2.6923   50.9792 C   0  0  0  0  0
    6.0205   -3.6532   48.8805 C   0  0  0  0  0
    5.1620   -3.2319   47.7379 C   0  0  0  0  0
    5.0834   -1.8821   47.3839 C   0  0  0  0  0
    4.2528   -1.5015   46.3285 C   0  0  0  0  0
    3.5096   -2.4661   45.6456 C   0  0  0  0  0
    3.6086   -3.8041   46.0341 C   0  0  0  0  0
    3.8868   -4.4448   51.6231 C   0  0  0  0  0
    1.8235   -2.3092   56.1646 C   0  0  0  0  0
    0.9343   -5.7113   55.2044 O   0  0  0  0  0
    3.8315   -2.3923   53.0974 N   0  0  0  0  0
    5.2360   -3.7035   50.1032 N   0  0  0  0  0
    4.4234   -4.1563   47.0652 N   0  0  0  0  0
    4.5127   -4.7497   50.4699 N   0  0  0  0  0
    2.6577   -1.9556   55.1521 N   0  0  0  0  0
    1.2578   -3.5438   56.1802 N   0  0  0  0  0
  1  2  1  0  0  0
  2 16  1  0  0  0
  3 16  1  0  0  0
  3 22  1  0  0  0
  4  5  1  0  0  0
  5 17  1  0  0  0
  7 18  1  0  0  0
  8 18  1  0  0  0
  8  9  1  0  0  0
  9 19  1  0  0  0
 10 11  1  0  0  0
 12 13  1  0  0  0
 14  6  1  0  0  0
 15 21  1  0  0  0
 17  6  1  0  0  0
 18 20  1  0  0  0
  3  4  2  0  0  0
  5 21  2  0  0  0
  6  7  2  0  0  0
  9 10  2  0  0  0
 11 12  2  0  0  0
 13 19  2  0  0  0
 14 20  2  0  0  0
 15 22  2  0  0  0
M  END
> <molecular weight>
280.2

> <rmsd>
0.337142

$$$$
MolPort-030-027-432 PubChem-86797689


 22 24  0  0  0  0  0  0  0  0999 V2000
   -1.3313   -5.4451   56.0112 C   0  0  0  0  0
    0.0104   -6.1282   56.2034 C   0  0  0  0  0
    1.5091   -4.4399   55.1864 C   0  0  0  0  0
    2.3633   -4.0903   54.1419 C   0  0  0  0  0
    2.9427   -2.8169   54.1394 C   0  0  0  0  0
    4.2453   -3.1498   51.9523 C   0  0  0  0  0
    5.1051   -2.6927   50.9794 C   0  0  0  0  0
    6.0778   -3.6791   48.9180 C   0  0  0  0  0
    7.4161   -4.2509   49.2380 C   0  0  0  0  0
    8.4596   -3.4083   49.6311 C   0  0  0  0  0
    9.6991   -3.9634   49.9540 C   0  0  0  0  0
    9.8807   -5.3460   49.8870 C   0  0  0  0  0
    8.8112   -6.1559   49.4976 C   0  0  0  0  0
    3.8832   -4.4430   51.6202 C   0  0  0  0  0
    1.8265   -2.3103   56.1658 C   0  0  0  0  0
    0.9276   -5.7105   55.1990 O   0  0  0  0  0
    3.8298   -2.3913   53.0957 N   0  0  0  0  0
    5.2299   -3.7007   50.0985 N   0  0  0  0  0
    7.6104   -5.5970   49.1867 N   0  0  0  0  0
    4.5141   -4.7502   50.4702 N   0  0  0  0  0
    2.6598   -1.9563   55.1528 N   0  0  0  0  0
    1.2578   -3.5434   56.1794 N   0  0  0  0  0
  1  2  1  0  0  0
  2 16  1  0  0  0
  3 16  1  0  0  0
  3 22  1  0  0  0
  4  5  1  0  0  0
  5 17  1  0  0  0
  7 18  1  0  0  0
  8 18  1  0  0  0
  8  9  1  0  0  0
  9 19  1  0  0  0
 10 11  1  0  0  0
 12 13  1  0  0  0
 14  6  1  0  0  0
 15 21  1  0  0  0
 17  6  1  0  0  0
 18 20  1  0  0  0
  3  4  2  0  0  0
  5 21  2  0  0  0
  6  7  2  0  0  0
  9 10  2  0  0  0
 11 12  2  0  0  0
 13 19  2  0  0  0
 14 20  2  0  0  0
 15 22  2  0  0  0
M  END
> <molecular weight>
280.2

> <rmsd>
0.336448

$$$$
MolPort-009-122-278 PubChem-27711222 ZINC17638689


 23 24  0  0  0  0  0  0  0  0999 V2000
    2.3535    0.2092   55.5167 C   0  0  0  0  0
    3.2980   -0.8417   54.9628 C   0  0  0  0  0
    1.7748   -2.7959   55.1513 C   0  0  0  0  0
   -0.1320   -3.9681   55.9696 C   0  0  0  0  0
   -0.6808   -4.0280   54.6912 C   0  0  0  0  0
    0.0297   -3.4863   53.6228 C   0  0  0  0  0
    1.2752   -2.8797   53.8273 C   0  0  0  0  0
    2.0414   -2.4530   52.6406 C   0  0  0  0  0
    4.2568   -2.3786   51.4091 C   0  0  0  0  0
    4.0634   -3.5344   50.4909 C   0  0  0  0  0
    2.5627   -4.6446   48.8791 C   0  0  0  0  0
    1.5704   -5.3200   49.7640 C   0  0  0  0  0
    0.2436   -4.8765   49.7915 C   0  0  0  0  0
   -0.6774   -5.4756   50.6563 C   0  0  0  0  0
   -0.2708   -6.5133   51.5007 C   0  0  0  0  0
    1.0571   -6.9508   51.4815 C   0  0  0  0  0
    1.9780   -6.3523   50.6161 C   0  0  0  0  0
    2.9634   -2.1287   55.4728 O   0  0  0  0  0
    1.4283   -2.0427   51.6172 O   0  0  0  0  0
    4.7602   -4.5738   50.6412 O   0  0  0  0  0
    3.0614   -3.4779   49.5208 O   0  0  0  0  0
    1.0683   -3.3630   56.1676 N   0  0  0  0  0
    3.4674   -2.5779   52.6166 N   0  0  0  0  0
  1  2  1  0  0  0
  2 18  1  0  0  0
  3 18  1  0  0  0
  4 22  1  0  0  0
  5  6  1  0  0  0
  7  8  1  0  0  0
  7  3  1  0  0  0
  8 23  1  0  0  0
  9 23  1  0  0  0
  9 10  1  0  0  0
 10 21  1  0  0  0
 11 21  1  0  0  0
 11 12  1  0  0  0
 13 14  1  0  0  0
 15 16  1  0  0  0
 17 12  1  0  0  0
  3 22  2  0  0  0
  4  5  2  0  0  0
  6  7  2  0  0  0
  8 19  2  0  0  0
 10 20  2  0  0  0
 12 13  2  0  0  0
 14 15  2  0  0  0
 16 17  2  0  0  0
M  END
> <molecular weight>
296.193

> <rmsd>
0.453668

$$$$
MolPort-005-073-180 PubChem-45206985


 26 28  0  0  0  0  0  0  0  0999 V2000
    3.5472   -7.7165   57.3324 C   0  0  0  0  0
    3.5123   -6.4392   56.5742 C   0  0  0  0  0
    4.5950   -6.0715   55.7812 C   0  0  0  0  0
    4.5570   -4.8722   55.0701 C   0  0  0  0  0
    5.7691   -4.5049   54.2814 C   0  0  0  0  0
    3.4198   -4.0333   55.1585 C   0  0  0  0  0
    3.3358   -2.7521   54.4091 C   0  0  0  0  0
    3.9485   -1.3883   52.3543 C   0  0  0  0  0
    4.2731   -1.6477   50.8792 C   0  0  0  0  0
    5.5989   -2.3808   50.6682 C   0  0  0  0  0
    6.4510   -4.7157   50.7066 C   0  0  0  0  0
    4.6235   -5.7943   50.8089 C   0  0  0  0  0
    4.8536   -0.3621   52.9709 C   0  0  0  0  0
    6.2021   -0.6440   53.2385 C   0  0  0  0  0
    7.0193    0.3247   53.8279 C   0  0  0  0  0
    6.4928    1.5775   54.1552 C   0  0  0  0  0
    5.1491    1.8611   53.8943 C   0  0  0  0  0
    4.3312    0.8923   53.3047 C   0  0  0  0  0
    2.3510   -4.4511   55.9851 C   0  0  0  0  0
    2.7011   -1.7763   54.8948 O   0  0  0  0  0
    1.3090   -3.7515   56.0974 O   0  0  0  0  0
    3.9499   -2.6273   53.1235 N   0  0  0  0  0
    5.4444   -3.8312   50.7254 N   0  0  0  0  0
    5.9626   -5.9707   50.7616 N   0  0  0  0  0
    4.2998   -4.4876   50.7840 N   0  0  0  0  0
    2.4275   -5.6287   56.6604 N   0  0  0  0  0
  1  2  1  0  0  0
  3  4  1  0  0  0
  5  4  1  0  0  0
  6  7  1  0  0  0
  6 19  1  0  0  0
  7 22  1  0  0  0
  8 22  1  0  0  0
  8  9  1  0  0  0
  8 13  1  0  0  0
  9 10  1  0  0  0
 10 23  1  0  0  0
 12 24  1  0  0  0
 14 15  1  0  0  0
 16 17  1  0  0  0
 18 13  1  0  0  0
 19 26  1  0  0  0
 23 11  1  0  0  0
 23 25  1  0  0  0
 26  2  1  0  0  0
  2  3  2  0  0  0
  4  6  2  0  0  0
  7 20  2  0  0  0
 11 24  2  0  0  0
 12 25  2  0  0  0
 13 14  2  0  0  0
 15 16  2  0  0  0
 17 18  2  0  0  0
 19 21  2  0  0  0
M  END
> <molecular weight>
330.236

> <rmsd>
0.330075

$$$$
MolPort-038-405-127 PubChem-91775473


 26 28  0  0  0  0  0  0  0  0999 V2000
   10.1766   -1.6244   54.2623 C   0  0  0  0  0
    9.0174   -0.7528   54.5966 C   0  0  0  0  0
    7.6881   -1.1068   54.5790 C   0  0  0  0  0
    7.0319    0.0551   54.9217 C   0  0  0  0  0
    5.5593    0.2426   55.0279 C   0  0  0  0  0
    7.0917   -2.4101   54.1671 C   0  0  0  0  0
    5.9319   -3.4556   52.5961 C   0  0  0  0  0
    6.5737   -4.4558   51.6361 C   0  0  0  0  0
    5.5304   -5.4901   51.2170 C   0  0  0  0  0
    3.7536   -4.1338   51.5379 C   0  0  0  0  0
    4.5946   -2.9553   52.0365 C   0  0  0  0  0
    3.4492   -2.6286   54.3232 C   0  0  0  0  0
    3.7047   -4.0297   54.7835 C   0  0  0  0  0
    1.3400   -4.7712   55.4699 C   0  0  0  0  0
    0.5035   -6.0068   55.3822 C   0  0  0  0  0
    2.4598   -6.1636   54.1421 C   0  0  0  0  0
    7.9324    1.0303   55.1457 N   0  0  0  0  0
    3.8617   -2.1720   53.0283 N   0  0  0  0  0
    2.5031   -4.8447   54.6554 N   0  0  0  0  0
    1.2915   -6.8836   54.5168 N   0  0  0  0  0
    9.1111    0.5090   54.9462 O   0  0  0  0  0
    6.7988   -2.3797   52.8025 O   0  0  0  0  0
    4.4632   -4.8535   50.5596 O   0  0  0  0  0
    2.8669   -1.8262   55.0970 O   0  0  0  0  0
    1.0701   -3.7897   56.2123 O   0  0  0  0  0
    3.3719   -6.6631   53.4314 O   0  0  0  0  0
  1  2  1  0  0  0
  2 21  1  0  0  0
  3  4  1  0  0  0
  5  4  1  0  0  0
  6  3  1  0  0  0
  6 22  1  0  0  0
  7 22  1  0  0  0
  7  8  1  0  0  0
  8  9  1  0  0  0
  9 23  1  0  0  0
 10 23  1  0  0  0
 10 11  1  0  0  0
 11 18  1  0  0  0
 11  7  1  0  0  0
 13 12  1  0  0  0
 13 19  1  0  0  0
 15 14  1  0  0  0
 15 20  1  0  0  0
 16 19  1  0  0  0
 17 21  1  0  0  0
 18 12  1  0  0  0
 19 14  1  0  0  0
 20 16  1  0  0  0
  2  3  2  0  0  0
  4 17  2  0  0  0
 12 24  2  0  0  0
 14 25  2  0  0  0
 16 26  2  0  0  0
M  END
> <molecular weight>
344.194

> <rmsd>
0.413432

$$$$
MolPort-005-600-157 PubChem-17568659 ZINC12550067


 26 27  0  0  0  0  0  0  0  0999 V2000
    9.2899   -5.2203   44.4958 C   0  0  0  0  0
    8.1682   -6.0996   45.0076 C   0  0  0  0  0
    6.3709   -5.1868   46.5244 C   0  0  0  0  0
    5.1718   -4.3502   46.7065 C   0  0  0  0  0
    4.6237   -3.6508   45.6228 C   0  0  0  0  0
    3.4871   -2.8575   45.7971 C   0  0  0  0  0
    2.8906   -2.7580   47.0567 C   0  0  0  0  0
    3.4241   -3.4493   48.1489 C   0  0  0  0  0
    3.1824   -3.9532   50.6499 C   0  0  0  0  0
    2.4130   -3.6809   51.8965 C   0  0  0  0  0
    2.8459   -2.3617   52.5220 C   0  0  0  0  0
    4.6106   -3.3225   54.1163 C   0  0  0  0  0
    5.9045   -3.8532   54.0602 C   0  0  0  0  0
    6.3392   -4.7788   55.0099 C   0  0  0  0  0
    5.4798   -5.1862   56.0295 C   0  0  0  0  0
    4.1948   -4.6482   56.1137 C   0  0  0  0  0
    3.7486   -3.7027   55.1772 C   0  0  0  0  0
    4.5659   -4.2439   47.9664 C   0  0  0  0  0
    6.9833   -5.2900   45.2360 N   0  0  0  0  0
    2.7850   -3.3211   49.4262 N   0  0  0  0  0
    4.2034   -2.4579   53.0468 N   0  0  0  0  0
    2.4665   -3.0901   55.3725 N   0  0  0  0  0
    6.8590   -5.8123   47.5055 O   0  0  0  0  0
    4.1839   -4.7157   50.6974 O   0  0  0  0  0
    2.3355   -1.7252   55.2589 O   0  0  0  0  0
    1.5383   -3.7427   55.8930 O   0  0  0  0  0
  1  2  1  0  0  0
  2 19  1  0  0  0
  3  4  1  0  0  0
  5  6  1  0  0  0
  7  8  1  0  0  0
  8 20  1  0  0  0
 10  9  1  0  0  0
 10 11  1  0  0  0
 11 21  1  0  0  0
 13 14  1  0  0  0
 15 16  1  0  0  0
 17 22  1  0  0  0
 17 12  1  0  0  0
 18  4  1  0  0  0
 19  3  1  0  0  0
 20  9  1  0  0  0
 21 12  1  0  0  0
 22 25  1  0  0  0
  3 23  2  0  0  0
  4  5  2  0  0  0
  6  7  2  0  0  0
  8 18  2  0  0  0
  9 24  2  0  0  0
 12 13  2  0  0  0
 14 15  2  0  0  0
 16 17  2  0  0  0
 22 26  2  0  0  0
M  CHG  2  22   1  25  -1
M  END
> <molecular weight>
336.217

> <rmsd>
0.341625

$$$$
MolPort-000-675-507


 19 19  0  0  0  0  0  0  0  0999 V2000
    6.1449   -5.6127   49.7820 C   0  0  0  0  0
    4.6540   -5.3493   49.8189 C   0  0  0  0  0
    3.4982   -4.7990   51.9392 C   0  0  0  0  0
    2.8827   -6.0574   51.9947 C   0  0  0  0  0
    2.0290   -6.3856   53.0517 C   0  0  0  0  0
    1.3772   -7.6970   53.1260 C   0  0  0  0  0
    1.1021  -10.7662   51.4242 C   0  0  0  0  0
    1.7899   -5.4499   54.0582 C   0  0  0  0  0
    2.3924   -4.1823   54.0287 C   0  0  0  0  0
    3.2545   -3.8613   52.9546 C   0  0  0  0  0
    4.3553   -4.4595   50.8863 O   0  0  0  0  0
    3.8747   -2.6186   52.8818 O   0  0  0  0  0
    2.6806   -1.9943   55.1076 O   0  0  0  0  0
    1.3486   -3.5702   56.0223 O   0  0  0  0  0
    1.5692   -8.5964   52.2176 N   0  0  0  0  0
    0.9333   -9.8400   52.3150 N   0  0  0  0  0
    0.4305  -12.0107   51.5742 N   0  0  0  0  0
    2.1156   -3.2486   55.0907 N   0  0  0  0  0
    2.1667  -10.5150   50.0014 S   0  0  0  0  0
  1  2  1  0  0  0
  2 11  1  0  0  0
  3 11  1  0  0  0
  4  5  1  0  0  0
  5  6  1  0  0  0
  7 17  1  0  0  0
  7 19  1  0  0  0
  8  9  1  0  0  0
  9 18  1  0  0  0
 10 12  1  0  0  0
 10  3  1  0  0  0
 15 16  1  0  0  0
 18 13  1  0  0  0
  3  4  2  0  0  0
  5  8  2  0  0  0
  6 15  2  0  0  0
  7 16  2  0  0  0
  9 10  2  0  0  0
 18 14  2  0  0  0
M  CHG  2  18   1  13  -1
M  END
> <molecular weight>
272.196

> <rmsd>
0.15284

$$$$
MolPort-000-675-507


 19 19  0  0  0  0  0  0  0  0999 V2000
    6.1484   -5.6082   49.7836 C   0  0  0  0  0
    4.6568   -5.3498   49.8204 C   0  0  0  0  0
    3.4979   -4.7997   51.9393 C   0  0  0  0  0
    2.8823   -6.0586   51.9944 C   0  0  0  0  0
    2.0306   -6.3869   53.0477 C   0  0  0  0  0
    1.4043   -7.7124   53.0730 C   0  0  0  0  0
   -0.7790   -9.7225   54.9661 C   0  0  0  0  0
    1.7900   -5.4493   54.0577 C   0  0  0  0  0
    2.3922   -4.1820   54.0285 C   0  0  0  0  0
    3.2542   -3.8615   52.9546 C   0  0  0  0  0
    4.3554   -4.4596   50.8867 O   0  0  0  0  0
    3.8746   -2.6189   52.8816 O   0  0  0  0  0
    2.6804   -1.9943   55.1077 O   0  0  0  0  0
    1.3479   -3.5702   56.0218 O   0  0  0  0  0
    0.6076   -8.0628   54.0287 N   0  0  0  0  0
    0.0243   -9.3357   54.0255 N   0  0  0  0  0
   -1.3424  -11.0271   54.9111 N   0  0  0  0  0
    2.1153   -3.2484   55.0905 N   0  0  0  0  0
   -1.1990   -8.6478   56.3406 S   0  0  0  0  0
  1  2  1  0  0  0
  2 11  1  0  0  0
  3 11  1  0  0  0
  4  5  1  0  0  0
  5  6  1  0  0  0
  7 17  1  0  0  0
  7 19  1  0  0  0
  8  9  1  0  0  0
  9 18  1  0  0  0
 10 12  1  0  0  0
 10  3  1  0  0  0
 15 16  1  0  0  0
 18 13  1  0  0  0
  3  4  2  0  0  0
  5  8  2  0  0  0
  6 15  2  0  0  0
  7 16  2  0  0  0
  9 10  2  0  0  0
 18 14  2  0  0  0
M  CHG  2  18   1  13  -1
M  END
> <molecular weight>
272.196

> <rmsd>
0.152617

$$$$
